{"data":"8fsIo5+Fre7zUudOneHprVIMccJBOn3zVZMBm89SGqJibPjD4kVPIKBSdEhUPoXQUW4MpDmtXuFS/1tNJ4CdT9bXXL+qi4S3BDyocNrsqe7jux9dSQbkCiQscL2EuHOC1RaDJUYofPbPM7WmfVXMldiAxcW+yH7b3iD/a3eHwKzYdq4uLDV4JdK4Dwf3H8od5owU+MiTdMEVOZaXEVhpj8iFgnVVcygOP7s6BM78QF5Owpr/w7dvShS43g0fPdN2Bu9U9RIZxPA/hWjmDjUV0G3A0O5f1rJLgamfDe7R84bkwD9yFzYZk1z/rmzv5uveki44bVU6EiJS5p3FZoDKFKH1w7jomKM6oIAxorolOL83nIlaNS9lLkqT2mHy+ejfmm+jKDk1yT4TzlHKH20VzmmL/jD8c0R9Nn6LzPUEJ33GTbkDGjGMNsBy7cIsJtJ/qYPMbbRIbwG3YZQkZHMTU4qdYPS8yCQ7/b1Hw5zXOvOp4eFcYFNVXs1fOnqemAafywy3CZiQs4uMIv4DNZVVr1e2eIvvl8e8RdGCDw0urpp611swP0HEUP0h4OCTrSy6m4AZD7ChCJQ0WQH+WyMek9Q8vCgKi/KI0CNZDqubqld1HaWVfvVONXXnT+cyileRRno6J/6Oo017okoFnFX4gpZ21Jm1BGK1FBN1LV+7XZYO9Srk02FN3xrtGJvnQ/eEF9ZU7UWr/w2s5ByShOQ6oOJYcLTNwg2F3Cets+dabS2JZqv3Vh0L4VsYNZC7pXB0lrYn8uoVH49BD0aBjC5OeB1F1EmcAEgVyUCmxFdCxCH7E7o6/ivReZ5kFQ1J400Omn+JCUQMaM2t/FJV655wfVFEOB1pol4YvZEAfaB2WqZPWpOFapqMgsHkA7gAfD9upHsIWH3qCWOtdIRv0/sBD9F1Lf8WyEGB5DkTLcesrfUUsxt57ifRzbLP0vfiMYvzaDkduX3d8kM3kCwxFnsuUW80EeA3+pPfKlefaHyPDpi8Kor1aQ7X17uktNJ3iZyNzURm6Z9Q8LOmrxNWgljIjLRuTovCxBUZz01btP87XPIpPHYInvoeiRm2vmp3pP/mDssRJZBrftu2D4tuWZHgBT6weS2ursao4R37oFhlEmyPBlBK08GORLeGwej/3OdFKvPEM9In0MZ55rYcH37yrB9AhfB39zCFgD7jTZdDpHYTqROyMOO6v005Gzm1v2nFVHbe1/RVQxM/2fBMUr3rJi3zE04EOaUDpkztd+QtdpazefXGOXdFfPthzwZrJOuu/ltSmwfoQTHFBrlD0cwE/xo8PDM8/yZFcr86kTQOwwENVewWm04hDmXkJuDbbhXNKrTdcpciZDyio1qFFSQehz+sAO3NXRJB7MIIxt9uIK/77i9np5PnsCFXDAYM/MT3DI3uClaAABiY4eIS7SflWb6/0IRtQW+RN4hBqM8Es3Jhc48hNpXNiErKqqM9XlSkZbSJrFVOK2WVTjX7buIRE0J/cwTX/KpLQFhL9rbEdrEOR1kd1Ac2yufa8JTwzITTPplSxTbkBkILTbvGcNVhn5dZIHPtxJSqhBs26vqLbs2ACxVlTXywIBUUd2gwaMlIg/RS7S/VGt8ioOoqwxJf9hYftwC6tN75anqdNpQ6bHdrCSjbMMlNoeREqb7i5Ke45b1wlPfea9Snz9sy98j8959363U6gi86ipqQPSUswC/Rg9GFx2M/9YmF/UbeglKlP3u8obt5qVc59/WpARIuU1pZtGsSOc8oh89xJVJVPlFaL3UzfO6tslv8lTQQJp9L12SK4hP3vMoy2/W5sszvXlsyYSy3fMLwCwmR0YAJVFR5W9rcgDuvyG11q4CYA5Gsfh2n71eQM0CTzuodbMtgu7A4iaYgCSdbrcspQmvYEVT0LTlDoixLxjbBz84XGVpMTu/+PwVSgUpA2JUzG66uqBf8DI24nlOCpKpgMlrEy3ywHPH/ZASvvwJ/DTUQSF2ROP527F7qjkHedN99nMvA4zas3FlQ1AOHjmZKkcqq4tcRhLqk46wDjPIfVjyaCXj4FVyeFOr7fhcQO95aNObX57AjPdznbDeL2hrnAbZh6rlb3H0eOBWsZ3O/7oJHdfpY2izKnl4GJvlp77UKoNMdDeUwEbLeobzlMAhv1Q/98VSvCUraSCzV2QrhR9yxXqA2C8cIusD+8YX18quPuyopPO5xph8daHs3swIxykJO4XQdztcfTeWgzgg7MvwdZGrCKFQ4nc/Oj4k6J7GfMvJIRyf3q68zJUE6Exg0crXodoKoTd+cFI9u4/2TKIIyKgx+32ohFBp1KT22kOoI8ZTwVQJNTbhTNCFaoftFgMjigubXP4hQ9RwGJOqoAHKpUN9mqB+JSYhPM+n5/1CSoQmyLthbIm4sYsaN8fl8dLbafGqtWSH7QLtjocyin84JSZYBMb4MvI+koQsUn6kTcceZeE+u7A3mmUq+dgBNMVWR5iJP2BfextojPN+kWghwI+7h1G7Gy9TW5e25Tr80tuDb4zghkQV4naXoqXrkvqVWSga+OIbaDYcpHeezpp4wTO9bishl8ZXPKlx1sofbh3ZF69GCavoyU6dyZwdegp7a9ySWmEuGE8v+bgZIThaa47KWaydH7coSo74oEXtWPw9C431VRwngwYYHEVEfvmzBlG/b3349CuWrb1GPdk9rpMkV9itTu8P4HW7USnM97cgDJPpjFcNXke916cg8wtQLG52oavE9dvGBiRquBA4+L5cpOgNpkK8pgGSb3TwLeKav3nfaHqyjQDom82FZVos+ZfnZQ/P1jrOSYj6eV1XR5IC8V8XzKRXrYFMOdRJtyDosGqj6ELbb7BZ/Mzg+7T6BJKAvHHJlW5aLru7bW+sTaU4AMPjeYERe4Kd/COB2RhjIYLIibHXFfRLglcEocDsjBwsnVYu5DsNjC/paO0Op1mEOlS23sDKPx44XKCLr48FAwPrOryFn4wXm4xE+a9vhu3EefzaMN6uJm76tmARIZmqPh7i7GI+mAiHzKSp4Nizdcwn1/8P3HsJ3Ymt99pMDXdnKM8ZCWUQvnPkggrqfJsIY5kin/chmtRZTUugePMDFT0vJemgxU7Cz22h9eWWFCFeurPhk8PnsVLbGxKeGp7Ph+UO/7+vOEnFEOLndq9R7pfcXHvRLSZ7lyVVRaaeHyoYjPHf9nwv+yUk4MufJlXzs/mcV+BgzqvkwDT4ckxEjDE/A8tMoMgbmTY/Fu9wUHwnGb/z9jR9xxtznU7BzUtfmmN+9wJz99HKO+AgvpdrRDEVz5OeQ3ugqg0ZaoJWmjCmWTVua053jUqk0eSBdqinOrf7QdQhCLpMqFTYru46oJKIATELe02PU77DHEo1mZ3LN2k+gou/1x2uvkJmuAHN/Xi7ixHlBmFOXyMuDnCeGfto8R8/RW1obN93t19mdURPWlTwdKorHDOcOEx2RaitA1mxZHgdzPCM6xdNZPRJ9fZoTAF2gDBobOLfoMK0EGwnP5nIHq/eD6CNt218I+IJdgDB0VEuOg0su+zxeS7W3ZHPHaCzRGfMTufOtnPMjKTgwdaoP2wg+HQfzGTE1CZ+YTZnjrKwUpT/MJartpEOVdspdEDtcPaJ4Cb3jrxznEUvJ8w70Dp2hvkp7n1jZj4tdSRzfkV2eGdcygZzmo1p25Fj0RxercEBoiwNGRVs/wYBHFipVsc/wbTvvNfhOKBrvyugGS8vM14DfJpvHngJbBjZrwU2ImGcpF3jXGsgoyhOIYqJIuMj3b6eIX4Kbe7Mq7FdL9DiIzEaEFUH8N9vRTJO1CQQhyk2FxhnSWRUXW61lCxCwV5bAeW0jWyQjs01a8Z2mmyMalvBYjEC9I/v7yGWl+jAMAp2FRtmoMlQY1nGfJzgQZqkVRJdtcU7C/Ph6GMmo3imUdfOn/wEZB39jZwLgyi0aIvFTabfVKUQ08AiweK/YdaG6rdw/LG95SGZMi5P/GljLv3wnaUUG2F58SbCmCrqXiJ1SaIYthUkibxbP1ML3b2IeMRp38UDPHiGL0G0DzTL/xhKjbwqt0noN25qQ8ZP30vVVW05a6lMTJxOgvQrxKbWD9x6aUgX6MKLEVGS1t2bfZQNIM0M5mMPbeTEzll6RnLpSKGeL137rAaJ7Sv6oId+WkJJwPkpr66h+KEmzpEvqOmyVS04dLAUY9DaPxhMjT7S8md5gQ/mCa1fpbSqvD3UQdvuPLXIGrwrxXyuhXbLrA0uZ4QT+/wYOVjR/CcrCWaYCNfOYjs9FU4lbmrgqIBITHdxiUdDTN/t/KYdtwcbPg9DV8Io2jrkZ27FBCdTAvEgmofvFdcwWRrSZd4o+douzkXBD4XU4uU6tMuK+DJxZspcIOHadujpW6BoIpY/IAPxO+7e7yMb1iG3WcC5NzcjUuL9iizS+FXxUeKN2oqMO6ckzH9+5Zx6IqG7w81B+JSsh5Z8OUNPuVEJs00pNOSTziFBcErKYFKY8+Ytv4jQlcHyMhW8t65N7G5jf4N96JWoyu33nyEY0PLqYJb1KwVUkA2FnOC4IiGGQ92DBbq4x6VGuc/soePWY7fSMORCMrCIzm+x+Vgqo6KrbV4fSPGitYj+nBFKPZR/RBIXQbIp+sinNEOOT3RO3XkvCIaS+2azUXCFA+Ksa0cyH4Hze2UyfWr7w0tvWhvNKddBlrnzK7NjKBG+uhcKYwTq1ptX1My01o+3FcRpos4L93+Mgj5y/DzRBU6UwchUrA/J/PZgCaHMZUhNHyAkiWZuFoOpAn94DIC4nGyXa","timestamp":"1782576294463"}